
Version,
  22.1;                                   !- Version Identifier

Timestep,
  6;                                      !- Number of Timesteps per Hour

LifeCycleCost:Parameters,
  Life Cycle Cost Parameters,             !- Name
  EndOfYear,                              !- Discounting Convention
  ConstantDollar,                         !- Inflation Approach
  0.03,                                   !- Real Discount Rate
  ,                                       !- Nominal Discount Rate
  ,                                       !- Inflation
  ,                                       !- Base Date Month
  2011,                                   !- Base Date Year
  ,                                       !- Service Date Month
  2011,                                   !- Service Date Year
  25,                                     !- Length of Study Period in Years
  ,                                       !- Tax rate
  None;                                   !- Depreciation Method

LifeCycleCost:UsePriceEscalation,
  U.S. Avg  Commercial-Electricity,       !- Name
  Electricity,                            !- Resource
  2011,                                   !- Escalation Start Year
  January,                                !- Escalation Start Month
  0.9838,                                 !- Year Escalation 1
  0.9730,                                 !- Year Escalation 2
  0.9632,                                 !- Year Escalation 3
  0.9611,                                 !- Year Escalation 4
  0.9571,                                 !- Year Escalation 5
  0.9553,                                 !- Year Escalation 6
  0.9539,                                 !- Year Escalation 7
  0.9521,                                 !- Year Escalation 8
  0.9546,                                 !- Year Escalation 9
  0.9550,                                 !- Year Escalation 10
  0.9553,                                 !- Year Escalation 11
  0.9564,                                 !- Year Escalation 12
  0.9575,                                 !- Year Escalation 13
  0.9596,                                 !- Year Escalation 14
  0.9618,                                 !- Year Escalation 15
  0.9614,                                 !- Year Escalation 16
  0.9618,                                 !- Year Escalation 17
  0.9618,                                 !- Year Escalation 18
  0.9593,                                 !- Year Escalation 19
  0.9589,                                 !- Year Escalation 20
  0.9607,                                 !- Year Escalation 21
  0.9625,                                 !- Year Escalation 22
  0.9650,                                 !- Year Escalation 23
  0.9708,                                 !- Year Escalation 24
  0.9751,                                 !- Year Escalation 25
  0.9762,                                 !- Year Escalation 26
  0.9766,                                 !- Year Escalation 27
  0.9766,                                 !- Year Escalation 28
  0.9769,                                 !- Year Escalation 29
  0.9773;                                 !- Year Escalation 30

LifeCycleCost:UsePriceEscalation,
  U.S. Avg  Commercial-Distillate Oil,    !- Name
  FuelOilNo1,                             !- Resource
  2011,                                   !- Escalation Start Year
  January,                                !- Escalation Start Month
  0.9714,                                 !- Year Escalation 1
  0.9730,                                 !- Year Escalation 2
  0.9942,                                 !- Year Escalation 3
  1.0164,                                 !- Year Escalation 4
  1.0541,                                 !- Year Escalation 5
  1.0928,                                 !- Year Escalation 6
  1.1267,                                 !- Year Escalation 7
  1.1580,                                 !- Year Escalation 8
  1.1792,                                 !- Year Escalation 9
  1.1967,                                 !- Year Escalation 10
  1.2200,                                 !- Year Escalation 11
  1.2333,                                 !- Year Escalation 12
  1.2566,                                 !- Year Escalation 13
  1.2709,                                 !- Year Escalation 14
  1.2826,                                 !- Year Escalation 15
  1.2985,                                 !- Year Escalation 16
  1.3102,                                 !- Year Escalation 17
  1.3250,                                 !- Year Escalation 18
  1.3261,                                 !- Year Escalation 19
  1.3282,                                 !- Year Escalation 20
  1.3324,                                 !- Year Escalation 21
  1.3356,                                 !- Year Escalation 22
  1.3431,                                 !- Year Escalation 23
  1.3510,                                 !- Year Escalation 24
  1.3568,                                 !- Year Escalation 25
  1.3606,                                 !- Year Escalation 26
  1.3637,                                 !- Year Escalation 27
  1.3674,                                 !- Year Escalation 28
  1.3706,                                 !- Year Escalation 29
  1.3743;                                 !- Year Escalation 30

LifeCycleCost:UsePriceEscalation,
  U.S. Avg  Commercial-Residual Oil,      !- Name
  FuelOilNo2,                             !- Resource
  2011,                                   !- Escalation Start Year
  January,                                !- Escalation Start Month
  0.8469,                                 !- Year Escalation 1
  0.8257,                                 !- Year Escalation 2
  0.8681,                                 !- Year Escalation 3
  0.8988,                                 !- Year Escalation 4
  0.9289,                                 !- Year Escalation 5
  0.9604,                                 !- Year Escalation 6
  0.9897,                                 !- Year Escalation 7
  1.0075,                                 !- Year Escalation 8
  1.0314,                                 !- Year Escalation 9
  1.0554,                                 !- Year Escalation 10
  1.0861,                                 !- Year Escalation 11
  1.1278,                                 !- Year Escalation 12
  1.1497,                                 !- Year Escalation 13
  1.1620,                                 !- Year Escalation 14
  1.1743,                                 !- Year Escalation 15
  1.1852,                                 !- Year Escalation 16
  1.1948,                                 !- Year Escalation 17
  1.2037,                                 !- Year Escalation 18
  1.2071,                                 !- Year Escalation 19
  1.2119,                                 !- Year Escalation 20
  1.2139,                                 !- Year Escalation 21
  1.2194,                                 !- Year Escalation 22
  1.2276,                                 !- Year Escalation 23
  1.2365,                                 !- Year Escalation 24
  1.2420,                                 !- Year Escalation 25
  1.2461,                                 !- Year Escalation 26
  1.2509,                                 !- Year Escalation 27
  1.2550,                                 !- Year Escalation 28
  1.2591,                                 !- Year Escalation 29
  1.2638;                                 !- Year Escalation 30

LifeCycleCost:UsePriceEscalation,
  U.S. Avg  Commercial-Natural gas,       !- Name
  NaturalGas,                             !- Resource
  2011,                                   !- Escalation Start Year
  January,                                !- Escalation Start Month
  0.9823,                                 !- Year Escalation 1
  0.9557,                                 !- Year Escalation 2
  0.9279,                                 !- Year Escalation 3
  0.9257,                                 !- Year Escalation 4
  0.9346,                                 !- Year Escalation 5
  0.9412,                                 !- Year Escalation 6
  0.9512,                                 !- Year Escalation 7
  0.9645,                                 !- Year Escalation 8
  0.9856,                                 !- Year Escalation 9
  1.0067,                                 !- Year Escalation 10
  1.0222,                                 !- Year Escalation 11
  1.0410,                                 !- Year Escalation 12
  1.0610,                                 !- Year Escalation 13
  1.0787,                                 !- Year Escalation 14
  1.0942,                                 !- Year Escalation 15
  1.1098,                                 !- Year Escalation 16
  1.1220,                                 !- Year Escalation 17
  1.1308,                                 !- Year Escalation 18
  1.1386,                                 !- Year Escalation 19
  1.1486,                                 !- Year Escalation 20
  1.1619,                                 !- Year Escalation 21
  1.1763,                                 !- Year Escalation 22
  1.1918,                                 !- Year Escalation 23
  1.2118,                                 !- Year Escalation 24
  1.2284,                                 !- Year Escalation 25
  1.2439,                                 !- Year Escalation 26
  1.2605,                                 !- Year Escalation 27
  1.2772,                                 !- Year Escalation 28
  1.2938,                                 !- Year Escalation 29
  1.3115;                                 !- Year Escalation 30

LifeCycleCost:UsePriceEscalation,
  U.S. Avg  Commercial-Coal,              !- Name
  Coal,                                   !- Resource
  2011,                                   !- Escalation Start Year
  January,                                !- Escalation Start Month
  0.9970,                                 !- Year Escalation 1
  1.0089,                                 !- Year Escalation 2
  1.0089,                                 !- Year Escalation 3
  0.9941,                                 !- Year Escalation 4
  0.9941,                                 !- Year Escalation 5
  1.0000,                                 !- Year Escalation 6
  1.0030,                                 !- Year Escalation 7
  1.0059,                                 !- Year Escalation 8
  1.0089,                                 !- Year Escalation 9
  1.0119,                                 !- Year Escalation 10
  1.0148,                                 !- Year Escalation 11
  1.0178,                                 !- Year Escalation 12
  1.0208,                                 !- Year Escalation 13
  1.0267,                                 !- Year Escalation 14
  1.0297,                                 !- Year Escalation 15
  1.0356,                                 !- Year Escalation 16
  1.0415,                                 !- Year Escalation 17
  1.0534,                                 !- Year Escalation 18
  1.0564,                                 !- Year Escalation 19
  1.0593,                                 !- Year Escalation 20
  1.0653,                                 !- Year Escalation 21
  1.0712,                                 !- Year Escalation 22
  1.0742,                                 !- Year Escalation 23
  1.0801,                                 !- Year Escalation 24
  1.0831,                                 !- Year Escalation 25
  1.0831,                                 !- Year Escalation 26
  1.0861,                                 !- Year Escalation 27
  1.0890,                                 !- Year Escalation 28
  1.0920,                                 !- Year Escalation 29
  1.0950;                                 !- Year Escalation 30

Building,
  Building 1,                             !- Name
  349.665399372284,                       !- North Axis {deg}
  City,                                   !- Terrain
  ,                                       !- Loads Convergence Tolerance Value {W}
  ,                                       !- Temperature Convergence Tolerance Value {deltaC}
  FullExteriorWithReflections,            !- Solar Distribution
  ,                                       !- Maximum Number of Warmup Days
  ;                                       !- Minimum Number of Warmup Days

Shading:Building:Detailed,
  Shade_0201ae7b_0,                       !- Name
  ,                                       !- Transmittance Schedule Name
  ,                                       !- Number of Vertices
  44.0984923577894, 117.225253531237, 3.2, !- X,Y,Z Vertex 1 {m}
  47.2484923577893, 117.225253531237, 2,  !- X,Y,Z Vertex 2 {m}
  47.2484923577893, 96.5252535312374, 2,  !- X,Y,Z Vertex 3 {m}
  44.0984923577894, 96.5252535312374, 3.2; !- X,Y,Z Vertex 4 {m}

Shading:Building:Detailed,
  Shade_0201ae7b_1,                       !- Name
  ,                                       !- Transmittance Schedule Name
  ,                                       !- Number of Vertices
  44.0984923577894, 96.5252535312374, 3.2, !- X,Y,Z Vertex 1 {m}
  47.2484923577893, 96.5252535312374, 2,  !- X,Y,Z Vertex 2 {m}
  47.2484923577893, 117.225253531237, 2,  !- X,Y,Z Vertex 3 {m}
  44.0984923577894, 117.225253531237, 3.2; !- X,Y,Z Vertex 4 {m}

Shading:Building:Detailed,
  Shade_0b6c446c_0,                       !- Name
  ,                                       !- Transmittance Schedule Name
  ,                                       !- Number of Vertices
  -19.1015076422106, 134.675253531237, 3.2, !- X,Y,Z Vertex 1 {m}
  -19.1015076422106, 131.475253531238, 3.2, !- X,Y,Z Vertex 2 {m}
  -17.9515076422106, 131.475253531238, 3.2, !- X,Y,Z Vertex 3 {m}
  39.7484923577912, 131.475253531238, 3.2, !- X,Y,Z Vertex 4 {m}
  39.7484923577893, 82.2752535312379, 3.2, !- X,Y,Z Vertex 5 {m}
  -19.1015076422106, 82.2752535312379, 3.2, !- X,Y,Z Vertex 6 {m}
  -19.1015076422106, 79.0752535312374, 3.2, !- X,Y,Z Vertex 7 {m}
  -5.7515076422107, 79.0752535312374, 3.2, !- X,Y,Z Vertex 8 {m}
  -5.7515076422107, 75.4752535312374, 3.2, !- X,Y,Z Vertex 9 {m}
  0.390349344393314, 75.4752535312375, 3.2, !- X,Y,Z Vertex 10 {m}
  0.390349344393343, 79.0752535312374, 3.2, !- X,Y,Z Vertex 11 {m}
  42.9984923577893, 79.0752535312374, 3.2, !- X,Y,Z Vertex 12 {m}
  42.9984923577893, 96.5252535312374, 3.2, !- X,Y,Z Vertex 13 {m}
  44.0984923577894, 96.5252535312374, 3.2, !- X,Y,Z Vertex 14 {m}
  44.0984923577894, 117.225253531237, 3.2, !- X,Y,Z Vertex 15 {m}
  42.9984923577893, 117.225253531237, 3.2, !- X,Y,Z Vertex 16 {m}
  42.9984923577893, 134.675253531237, 3.2, !- X,Y,Z Vertex 17 {m}
  0.390349344393343, 134.675253531237, 3.2, !- X,Y,Z Vertex 18 {m}
  0.3903493443934, 138.275253531237, 3.2, !- X,Y,Z Vertex 19 {m}
  -5.7515076422107, 138.275253531237, 3.2, !- X,Y,Z Vertex 20 {m}
  -5.7515076422107, 134.675253531237, 3.2; !- X,Y,Z Vertex 21 {m}

Shading:Building:Detailed,
  Shade_0b6c446c_1,                       !- Name
  ,                                       !- Transmittance Schedule Name
  ,                                       !- Number of Vertices
  42.9984923577893, 134.675253531237, 3.2, !- X,Y,Z Vertex 1 {m}
  42.9984923577893, 117.225253531237, 3.2, !- X,Y,Z Vertex 2 {m}
  44.0984923577894, 117.225253531237, 3.2, !- X,Y,Z Vertex 3 {m}
  44.0984923577894, 96.5252535312374, 3.2, !- X,Y,Z Vertex 4 {m}
  42.9984923577893, 96.5252535312374, 3.2, !- X,Y,Z Vertex 5 {m}
  42.9984923577893, 79.0752535312374, 3.2, !- X,Y,Z Vertex 6 {m}
  0.390349344393343, 79.0752535312374, 3.2, !- X,Y,Z Vertex 7 {m}
  0.390349344393314, 75.4752535312375, 3.2, !- X,Y,Z Vertex 8 {m}
  -5.7515076422107, 75.4752535312374, 3.2, !- X,Y,Z Vertex 9 {m}
  -5.7515076422107, 79.0752535312374, 3.2, !- X,Y,Z Vertex 10 {m}
  -19.1015076422106, 79.0752535312374, 3.2, !- X,Y,Z Vertex 11 {m}
  -19.1015076422106, 82.2752535312379, 3.2, !- X,Y,Z Vertex 12 {m}
  39.7484923577893, 82.2752535312379, 3.2, !- X,Y,Z Vertex 13 {m}
  39.7484923577912, 131.475253531238, 3.2, !- X,Y,Z Vertex 14 {m}
  -17.9515076422106, 131.475253531238, 3.2, !- X,Y,Z Vertex 15 {m}
  -19.1015076422106, 131.475253531238, 3.2, !- X,Y,Z Vertex 16 {m}
  -19.1015076422106, 134.675253531237, 3.2, !- X,Y,Z Vertex 17 {m}
  -5.7515076422107, 134.675253531237, 3.2, !- X,Y,Z Vertex 18 {m}
  -5.7515076422107, 138.275253531237, 3.2, !- X,Y,Z Vertex 19 {m}
  0.3903493443934, 138.275253531237, 3.2, !- X,Y,Z Vertex 20 {m}
  0.390349344393343, 134.675253531237, 3.2; !- X,Y,Z Vertex 21 {m}

Shading:Building:Detailed,
  Shade_123dd579_0,                       !- Name
  ,                                       !- Transmittance Schedule Name
  ,                                       !- Number of Vertices
  5.34075688389891, 79.0752535312375, 2,  !- X,Y,Z Vertex 1 {m}
  10.5907568838989, 79.0752535312375, 4.44089209850063e-16, !- X,Y,Z Vertex 2 {m}
  10.5907568838989, 75.4752535312375, 4.44089209850063e-16, !- X,Y,Z Vertex 3 {m}
  5.34075688389891, 75.4752535312375, 2,  !- X,Y,Z Vertex 4 {m}
  5.34075688389891, 75.5752535312375, 2;  !- X,Y,Z Vertex 5 {m}

Shading:Building:Detailed,
  Shade_123dd579_1,                       !- Name
  ,                                       !- Transmittance Schedule Name
  ,                                       !- Number of Vertices
  5.34075688389891, 75.4752535312375, 2,  !- X,Y,Z Vertex 1 {m}
  10.5907568838989, 75.4752535312375, 4.44089209850063e-16, !- X,Y,Z Vertex 2 {m}
  10.5907568838989, 79.0752535312375, 4.44089209850063e-16, !- X,Y,Z Vertex 3 {m}
  5.34075688389891, 79.0752535312375, 2,  !- X,Y,Z Vertex 4 {m}
  5.34075688389891, 75.5752535312375, 2;  !- X,Y,Z Vertex 5 {m}

Shading:Building:Detailed,
  Shade_1a53ec5a_0,                       !- Name
  ,                                       !- Transmittance Schedule Name
  ,                                       !- Number of Vertices
  10.5907568838989, 75.4752535312375, 1.05, !- X,Y,Z Vertex 1 {m}
  10.5907568838989, 75.4752535312375, 4.44089209850063e-16, !- X,Y,Z Vertex 2 {m}
  5.34075688389891, 75.4752535312375, 2,  !- X,Y,Z Vertex 3 {m}
  5.34075688389891, 75.4752535312375, 3.05; !- X,Y,Z Vertex 4 {m}

Shading:Building:Detailed,
  Shade_1a53ec5a_1,                       !- Name
  ,                                       !- Transmittance Schedule Name
  ,                                       !- Number of Vertices
  -19.1015076422106, 79.0752535312374, 4.25, !- X,Y,Z Vertex 1 {m}
  -19.1015076422106, 79.0752535312374, 3.2, !- X,Y,Z Vertex 2 {m}
  -19.1015076422106, 82.2752535312379, 3.2, !- X,Y,Z Vertex 3 {m}
  -19.1015076422106, 82.2752535312379, 4.25; !- X,Y,Z Vertex 4 {m}

Shading:Building:Detailed,
  Shade_1a53ec5a_2,                       !- Name
  ,                                       !- Transmittance Schedule Name
  ,                                       !- Number of Vertices
  -5.7515076422107, 79.0752535312374, 4.25, !- X,Y,Z Vertex 1 {m}
  -5.7515076422107, 79.0752535312374, 3.2, !- X,Y,Z Vertex 2 {m}
  -19.1015076422106, 79.0752535312374, 3.2, !- X,Y,Z Vertex 3 {m}
  -19.1015076422106, 79.0752535312374, 4.25; !- X,Y,Z Vertex 4 {m}

Shading:Building:Detailed,
  Shade_1a53ec5a_3,                       !- Name
  ,                                       !- Transmittance Schedule Name
  ,                                       !- Number of Vertices
  -5.7515076422107, 75.4752535312374, 4.25, !- X,Y,Z Vertex 1 {m}
  -5.7515076422107, 75.4752535312374, 3.2, !- X,Y,Z Vertex 2 {m}
  -5.7515076422107, 79.0752535312374, 3.2, !- X,Y,Z Vertex 3 {m}
  -5.7515076422107, 79.0752535312374, 4.25; !- X,Y,Z Vertex 4 {m}

Shading:Building:Detailed,
  Shade_1a53ec5a_4,                       !- Name
  ,                                       !- Transmittance Schedule Name
  ,                                       !- Number of Vertices
  0.390349344393314, 75.4752535312375, 4.25, !- X,Y,Z Vertex 1 {m}
  0.390349344393314, 75.4752535312375, 3.2, !- X,Y,Z Vertex 2 {m}
  -5.7515076422107, 75.4752535312374, 3.2, !- X,Y,Z Vertex 3 {m}
  -5.7515076422107, 75.4752535312374, 4.25; !- X,Y,Z Vertex 4 {m}

Shading:Building:Detailed,
  Shade_1a53ec5a_5,                       !- Name
  ,                                       !- Transmittance Schedule Name
  ,                                       !- Number of Vertices
  3.54034934439329, 75.4752535312375, 3.05, !- X,Y,Z Vertex 1 {m}
  3.54034934439329, 75.4752535312375, 2,  !- X,Y,Z Vertex 2 {m}
  0.390349344393314, 75.4752535312375, 3.2, !- X,Y,Z Vertex 3 {m}
  0.390349344393314, 75.4752535312375, 4.25; !- X,Y,Z Vertex 4 {m}

Shading:Building:Detailed,
  Shade_1a53ec5a_6,                       !- Name
  ,                                       !- Transmittance Schedule Name
  ,                                       !- Number of Vertices
  5.34075688389891, 75.4752535312375, 3.05, !- X,Y,Z Vertex 1 {m}
  5.34075688389891, 75.4752535312375, 2,  !- X,Y,Z Vertex 2 {m}
  3.54034934439329, 75.4752535312375, 2,  !- X,Y,Z Vertex 3 {m}
  3.54034934439329, 75.4752535312375, 3.05; !- X,Y,Z Vertex 4 {m}

Shading:Building:Detailed,
  Shade_1a53ec5a_7,                       !- Name
  ,                                       !- Transmittance Schedule Name
  ,                                       !- Number of Vertices
  -19.1015076422106, 82.2752535312379, 4.25, !- X,Y,Z Vertex 1 {m}
  -19.1015076422106, 82.2752535312379, 3.2, !- X,Y,Z Vertex 2 {m}
  -17.9515076422107, 82.275253531238, 3.2, !- X,Y,Z Vertex 3 {m}
  -17.9515076422107, 82.275253531238, 4.25; !- X,Y,Z Vertex 4 {m}

Shading:Building:Detailed,
  Shade_1d7b2e16_0,                       !- Name
  ,                                       !- Transmittance Schedule Name
  ,                                       !- Number of Vertices
  3.54034934439315, 79.0752535312374, 2,  !- X,Y,Z Vertex 1 {m}
  3.54034934439329, 75.4752535312375, 2,  !- X,Y,Z Vertex 2 {m}
  5.34075688389891, 75.4752535312375, 2,  !- X,Y,Z Vertex 3 {m}
  5.34075688389891, 75.5752535312375, 2,  !- X,Y,Z Vertex 4 {m}
  5.34075688389891, 79.0752535312375, 2;  !- X,Y,Z Vertex 5 {m}

Shading:Building:Detailed,
  Shade_1d7b2e16_1,                       !- Name
  ,                                       !- Transmittance Schedule Name
  ,                                       !- Number of Vertices
  5.34075688389891, 79.0752535312375, 2,  !- X,Y,Z Vertex 1 {m}
  5.34075688389891, 75.5752535312375, 2,  !- X,Y,Z Vertex 2 {m}
  5.34075688389891, 75.4752535312375, 2,  !- X,Y,Z Vertex 3 {m}
  3.54034934439329, 75.4752535312375, 2,  !- X,Y,Z Vertex 4 {m}
  3.54034934439315, 79.0752535312374, 2;  !- X,Y,Z Vertex 5 {m}

Shading:Building:Detailed,
  Shade_5492e367_0,                       !- Name
  ,                                       !- Transmittance Schedule Name
  ,                                       !- Number of Vertices
  0.3903493443934, 138.275253531237, 3.2, !- X,Y,Z Vertex 1 {m}
  3.54034934439321, 138.275253531237, 2,  !- X,Y,Z Vertex 2 {m}
  3.54034934439335, 134.675253531237, 2,  !- X,Y,Z Vertex 3 {m}
  0.390349344393343, 134.675253531237, 3.2; !- X,Y,Z Vertex 4 {m}

Shading:Building:Detailed,
  Shade_5492e367_1,                       !- Name
  ,                                       !- Transmittance Schedule Name
  ,                                       !- Number of Vertices
  0.390349344393343, 134.675253531237, 3.2, !- X,Y,Z Vertex 1 {m}
  3.54034934439335, 134.675253531237, 2,  !- X,Y,Z Vertex 2 {m}
  3.54034934439321, 138.275253531237, 2,  !- X,Y,Z Vertex 3 {m}
  0.3903493443934, 138.275253531237, 3.2; !- X,Y,Z Vertex 4 {m}

Shading:Building:Detailed,
  Shade_5e524c31_0,                       !- Name
  ,                                       !- Transmittance Schedule Name
  ,                                       !- Number of Vertices
  10.5907568838989, 79.0752535312375, 1.05, !- X,Y,Z Vertex 1 {m}
  10.5907568838989, 79.0752535312375, 4.44089209850063e-16, !- X,Y,Z Vertex 2 {m}
  7.96575688389891, 79.0752535312375, 1,  !- X,Y,Z Vertex 3 {m}
  5.34075688389891, 79.0752535312375, 2,  !- X,Y,Z Vertex 4 {m}
  5.34075688389891, 79.0752535312375, 3.05, !- X,Y,Z Vertex 5 {m}
  7.96575688389891, 79.0752535312375, 2.05; !- X,Y,Z Vertex 6 {m}

Shading:Building:Detailed,
  Shade_5e524c31_1,                       !- Name
  ,                                       !- Transmittance Schedule Name
  ,                                       !- Number of Vertices
  3.54034934439315, 79.0752535312374, 3.05, !- X,Y,Z Vertex 1 {m}
  3.54034934439315, 79.0752535312374, 2,  !- X,Y,Z Vertex 2 {m}
  0.390349344393343, 79.0752535312374, 3.2, !- X,Y,Z Vertex 3 {m}
  0.390349344393343, 79.0752535312374, 4.25; !- X,Y,Z Vertex 4 {m}

Shading:Building:Detailed,
  Shade_5e524c31_2,                       !- Name
  ,                                       !- Transmittance Schedule Name
  ,                                       !- Number of Vertices
  5.34075688389891, 79.0752535312375, 3.05, !- X,Y,Z Vertex 1 {m}
  5.34075688389891, 79.0752535312375, 2,  !- X,Y,Z Vertex 2 {m}
  3.54034934439315, 79.0752535312374, 2,  !- X,Y,Z Vertex 3 {m}
  3.54034934439315, 79.0752535312374, 3.05; !- X,Y,Z Vertex 4 {m}

Shading:Building:Detailed,
  Shade_5e524c31_3,                       !- Name
  ,                                       !- Transmittance Schedule Name
  ,                                       !- Number of Vertices
  49.0488998972949, 96.5252535312374, 3.05, !- X,Y,Z Vertex 1 {m}
  49.0488998972949, 96.5252535312374, 2,  !- X,Y,Z Vertex 2 {m}
  54.2988998972948, 96.5252535312374, 4.44089209850063e-16, !- X,Y,Z Vertex 3 {m}
  54.2988998972948, 96.5252535312374, 1.05; !- X,Y,Z Vertex 4 {m}

Shading:Building:Detailed,
  Shade_5e524c31_4,                       !- Name
  ,                                       !- Transmittance Schedule Name
  ,                                       !- Number of Vertices
  0.390349344393343, 79.0752535312374, 4.25, !- X,Y,Z Vertex 1 {m}
  0.390349344393343, 79.0752535312374, 3.2, !- X,Y,Z Vertex 2 {m}
  42.9984923577893, 79.0752535312374, 3.2, !- X,Y,Z Vertex 3 {m}
  42.9984923577893, 79.0752535312374, 4.25; !- X,Y,Z Vertex 4 {m}

Shading:Building:Detailed,
  Shade_5e524c31_5,                       !- Name
  ,                                       !- Transmittance Schedule Name
  ,                                       !- Number of Vertices
  42.9984923577893, 79.0752535312374, 4.25, !- X,Y,Z Vertex 1 {m}
  42.9984923577893, 79.0752535312374, 3.2, !- X,Y,Z Vertex 2 {m}
  42.9984923577893, 96.5252535312374, 3.2, !- X,Y,Z Vertex 3 {m}
  42.9984923577893, 96.5252535312374, 4.25; !- X,Y,Z Vertex 4 {m}

Shading:Building:Detailed,
  Shade_5e524c31_6,                       !- Name
  ,                                       !- Transmittance Schedule Name
  ,                                       !- Number of Vertices
  42.9984923577893, 96.5252535312374, 4.25, !- X,Y,Z Vertex 1 {m}
  42.9984923577893, 96.5252535312374, 3.2, !- X,Y,Z Vertex 2 {m}
  44.0984923577894, 96.5252535312374, 3.2, !- X,Y,Z Vertex 3 {m}
  44.0984923577894, 96.5252535312374, 4.25; !- X,Y,Z Vertex 4 {m}

Shading:Building:Detailed,
  Shade_5e524c31_7,                       !- Name
  ,                                       !- Transmittance Schedule Name
  ,                                       !- Number of Vertices
  44.0984923577894, 96.5252535312374, 4.25, !- X,Y,Z Vertex 1 {m}
  44.0984923577894, 96.5252535312374, 3.2, !- X,Y,Z Vertex 2 {m}
  47.2484923577893, 96.5252535312374, 2,  !- X,Y,Z Vertex 3 {m}
  47.2484923577893, 96.5252535312374, 3.05; !- X,Y,Z Vertex 4 {m}

Shading:Building:Detailed,
  Shade_5e524c31_8,                       !- Name
  ,                                       !- Transmittance Schedule Name
  ,                                       !- Number of Vertices
  47.2484923577893, 96.5252535312374, 3.05, !- X,Y,Z Vertex 1 {m}
  47.2484923577893, 96.5252535312374, 2,  !- X,Y,Z Vertex 2 {m}
  49.0488998972949, 96.5252535312374, 2,  !- X,Y,Z Vertex 3 {m}
  49.0488998972949, 96.5252535312374, 3.05; !- X,Y,Z Vertex 4 {m}

Shading:Building:Detailed,
  Shade_6261863e_0,                       !- Name
  ,                                       !- Transmittance Schedule Name
  ,                                       !- Number of Vertices
  -17.9515076422106, 131.475253531238, 4.25, !- X,Y,Z Vertex 1 {m}
  -17.9515076422106, 131.475253531238, 3.2, !- X,Y,Z Vertex 2 {m}
  -19.1015076422106, 131.475253531238, 3.2, !- X,Y,Z Vertex 3 {m}
  -19.1015076422106, 131.475253531238, 4.25; !- X,Y,Z Vertex 4 {m}

Shading:Building:Detailed,
  Shade_6261863e_1,                       !- Name
  ,                                       !- Transmittance Schedule Name
  ,                                       !- Number of Vertices
  5.34075688389896, 138.275253531237, 3.05, !- X,Y,Z Vertex 1 {m}
  5.34075688389896, 138.275253531237, 2,  !- X,Y,Z Vertex 2 {m}
  10.590756883899, 138.275253531237, 4.44089209850063e-16, !- X,Y,Z Vertex 3 {m}
  10.590756883899, 138.275253531237, 1.05; !- X,Y,Z Vertex 4 {m}

Shading:Building:Detailed,
  Shade_6261863e_2,                       !- Name
  ,                                       !- Transmittance Schedule Name
  ,                                       !- Number of Vertices
  3.54034934439321, 138.275253531237, 3.05, !- X,Y,Z Vertex 1 {m}
  3.54034934439321, 138.275253531237, 2,  !- X,Y,Z Vertex 2 {m}
  5.34075688389896, 138.275253531237, 2,  !- X,Y,Z Vertex 3 {m}
  5.34075688389896, 138.275253531237, 3.05; !- X,Y,Z Vertex 4 {m}

Shading:Building:Detailed,
  Shade_6261863e_3,                       !- Name
  ,                                       !- Transmittance Schedule Name
  ,                                       !- Number of Vertices
  0.3903493443934, 138.275253531237, 4.25, !- X,Y,Z Vertex 1 {m}
  0.3903493443934, 138.275253531237, 3.2, !- X,Y,Z Vertex 2 {m}
  3.54034934439321, 138.275253531237, 2,  !- X,Y,Z Vertex 3 {m}